<?xml version="1.0" encoding="UTF-8"?>

<!-- generated on 2026-03-10 06:47:23 by Eclipse SUMO netconvert Version 1.18.0
<configuration xmlns:xsi="http://www.w3.org/2001/XMLSchema-instance" xsi:noNamespaceSchemaLocation="http://sumo.dlr.de/xsd/netconvertConfiguration.xsd">

    <input>
        <osm-files value="/home/runner/work/MARLTSOIOSU/MARLTSOIOSU/maps/hyderabad_hitec.osm"/>
    </input>

    <output>
        <output-file value="/home/runner/work/MARLTSOIOSU/MARLTSOIOSU/maps/hyderabad/map.net.xml"/>
    </output>

    <projection>
        <proj.utm value="true"/>
    </projection>

    <processing>
        <geometry.remove value="true"/>
        <roundabouts.guess value="true"/>
    </processing>

    <tls_building>
        <tls.guess value="true"/>
        <tls.guess-signals value="true"/>
    </tls_building>

    <ramp_guessing>
        <ramps.guess value="true"/>
    </ramp_guessing>

    <edge_removal>
        <keep-edges.by-vclass value="passenger"/>
        <remove-edges.isolated value="true"/>
    </edge_removal>

    <junctions>
        <no-internal-links value="false"/>
        <junctions.join value="true"/>
    </junctions>

    <report>
        <no-warnings value="true"/>
    </report>

</configuration>
-->

<net version="1.16" junctionCornerDetail="5" limitTurnSpeed="5.50" xmlns:xsi="http://www.w3.org/2001/XMLSchema-instance" xsi:noNamespaceSchemaLocation="http://sumo.dlr.de/xsd/net_file.xsd">

    <location netOffset="-220634.71,-1930127.45" convBoundary="0.00,0.00,1931.28,1354.96" origBoundary="78.370000,17.440000,78.388000,17.452000" projParameter="+proj=utm +zone=44 +ellps=WGS84 +datum=WGS84 +units=m +no_defs"/>

    <type id="highway.primary" priority="12" numLanes="2" speed="27.78" disallow="tram rail_urban rail rail_electric rail_fast ship" oneway="0"/>
    <type id="highway.secondary" priority="11" numLanes="1" speed="27.78" disallow="tram rail_urban rail rail_electric rail_fast ship" oneway="0"/>

    <edge id=":101_0" function="internal">
        <lane id=":101_0_0" index="0" disallow="tram rail_urban rail rail_electric rail_fast ship" speed="9.32" length="19.63" shape="25.56,1359.66 21.70,1358.77 18.91,1355.95 17.20,1351.23 16.56,1344.58"/>
    </edge>
    <edge id=":101_1" function="internal">
        <lane id=":101_1_0" index="0" disallow="tram rail_urban rail rail_electric rail_fast ship" speed="6.51" length="9.03" shape="19.76,1344.54 20.14,1346.99 21.21,1348.72 22.98,1349.75 25.43,1350.06"/>
        <lane id=":101_1_1" index="1" disallow="tram rail_urban rail rail_electric rail_fast ship" speed="7.33" length="11.73" shape="19.76,1344.54 20.16,1348.39 21.25,1351.12 23.02,1352.75 25.48,1353.26"/>
    </edge>
    <edge id=":102_0" function="internal">
        <lane id=":102_0_0" index="0" disallow="tram rail_urban rail rail_electric rail_fast ship" speed="13.89" length="20.80" shape="666.43,1350.84 645.63,1351.13"/>
        <lane id=":102_0_1" index="1" disallow="tram rail_urban rail rail_electric rail_fast ship" speed="13.89" length="20.80" shape="666.38,1347.64 645.58,1347.93"/>
    </edge>
    <edge id=":102_2" function="internal">
        <lane id=":102_2_0" index="0" disallow="tram rail_urban rail rail_electric rail_fast ship" speed="9.26" length="5.01" shape="666.38,1347.64 661.41,1347.00"/>
    </edge>
    <edge id=":102_3" function="internal">
        <lane id=":102_3_0" index="0" disallow="tram rail_urban rail rail_electric rail_fast ship" speed="3.65" length="1.44" shape="666.38,1347.64 665.17,1346.86"/>
    </edge>
    <edge id=":102_12" function="internal">
        <lane id=":102_12_0" index="0" disallow="tram rail_urban rail rail_electric rail_fast ship" speed="9.26" length="14.34" shape="661.41,1347.00 661.12,1346.97 657.34,1344.77 655.04,1341.05 654.22,1335.81"/>
    </edge>
    <edge id=":102_13" function="internal">
        <lane id=":102_13_0" index="0" disallow="tram rail_urban rail rail_electric rail_fast ship" speed="3.65" length="3.23" shape="665.17,1346.86 664.76,1346.07 665.15,1345.26 666.34,1344.44"/>
    </edge>
    <edge id=":102_4" function="internal">
        <lane id=":102_4_0" index="0" disallow="tram rail_urban rail rail_electric rail_fast ship" speed="6.51" length="9.03" shape="660.62,1335.72 661.00,1338.17 662.07,1339.90 663.84,1340.93 666.29,1341.24"/>
        <lane id=":102_4_1" index="1" disallow="tram rail_urban rail rail_electric rail_fast ship" speed="8.00" length="14.19" shape="657.42,1335.77 658.02,1339.61 659.71,1342.34 662.48,1343.95 666.34,1344.44"/>
    </edge>
    <edge id=":102_6" function="internal">
        <lane id=":102_6_0" index="0" disallow="tram rail_urban rail rail_electric rail_fast ship" speed="9.26" length="19.35" shape="657.42,1335.77 656.74,1341.03 654.54,1344.81 650.82,1347.11 645.58,1347.93"/>
    </edge>
    <edge id=":102_7" function="internal">
        <lane id=":102_7_0" index="0" disallow="tram rail_urban rail rail_electric rail_fast ship" speed="3.65" length="2.34" shape="657.42,1335.77 656.63,1336.98 655.84,1337.39"/>
    </edge>
    <edge id=":102_14" function="internal">
        <lane id=":102_14_0" index="0" disallow="tram rail_urban rail rail_electric rail_fast ship" speed="3.65" length="2.34" shape="655.84,1337.39 655.03,1337.00 654.22,1335.81"/>
    </edge>
    <edge id=":102_8" function="internal">
        <lane id=":102_8_0" index="0" disallow="tram rail_urban rail rail_electric rail_fast ship" speed="6.51" length="9.03" shape="645.50,1341.53 647.94,1341.15 649.68,1340.07 650.70,1338.31 651.02,1335.85"/>
    </edge>
    <edge id=":102_9" function="internal">
        <lane id=":102_9_0" index="0" disallow="tram rail_urban rail rail_electric rail_fast ship" speed="13.89" length="20.80" shape="645.50,1341.53 666.29,1341.24"/>
        <lane id=":102_9_1" index="1" disallow="tram rail_urban rail rail_electric rail_fast ship" speed="13.89" length="20.80" shape="645.54,1344.73 666.34,1344.44"/>
    </edge>
    <edge id=":102_11" function="internal">
        <lane id=":102_11_0" index="0" disallow="tram rail_urban rail rail_electric rail_fast ship" speed="3.65" length="1.44" shape="645.54,1344.73 646.75,1345.51"/>
    </edge>
    <edge id=":102_15" function="internal">
        <lane id=":102_15_0" index="0" disallow="tram rail_urban rail rail_electric rail_fast ship" speed="3.65" length="3.23" shape="646.75,1345.51 647.16,1346.31 646.77,1347.11 645.58,1347.93"/>
    </edge>
    <edge id=":103_0" function="internal">
        <lane id=":103_0_0" index="0" disallow="tram rail_urban rail rail_electric rail_fast ship" speed="13.89" length="14.40" shape="1300.89,1342.13 1286.49,1342.33"/>
        <lane id=":103_0_1" index="1" disallow="tram rail_urban rail rail_electric rail_fast ship" speed="13.89" length="14.40" shape="1300.84,1338.93 1286.44,1339.13"/>
    </edge>
    <edge id=":103_2" function="internal">
        <lane id=":103_2_0" index="0" disallow="tram rail_urban rail rail_electric rail_fast ship" speed="8.67" length="3.71" shape="1300.84,1338.93 1297.19,1338.27"/>
    </edge>
    <edge id=":103_3" function="internal">
        <lane id=":103_3_0" index="0" disallow="tram rail_urban rail rail_electric rail_fast ship" speed="3.65" length="1.44" shape="1300.84,1338.93 1299.63,1338.15"/>
    </edge>
    <edge id=":103_11" function="internal">
        <lane id=":103_11_0" index="0" disallow="tram rail_urban rail rail_electric rail_fast ship" speed="8.67" length="13.14" shape="1297.19,1338.27 1296.98,1338.24 1294.20,1336.02 1292.50,1332.30 1291.88,1327.06"/>
    </edge>
    <edge id=":103_12" function="internal">
        <lane id=":103_12_0" index="0" disallow="tram rail_urban rail rail_electric rail_fast ship" speed="3.65" length="3.23" shape="1299.63,1338.15 1299.22,1337.36 1299.61,1336.55 1300.80,1335.73"/>
    </edge>
    <edge id=":103_4" function="internal">
        <lane id=":103_4_0" index="0" disallow="tram rail_urban rail rail_electric rail_fast ship" speed="6.51" length="9.03" shape="1295.08,1327.01 1295.46,1329.46 1296.53,1331.19 1298.30,1332.22 1300.75,1332.53"/>
    </edge>
    <edge id=":103_5" function="internal">
        <lane id=":103_5_0" index="0" disallow="tram rail_urban rail rail_electric rail_fast ship" speed="8.67" length="16.85" shape="1295.08,1327.01 1294.60,1332.27 1293.00,1336.04 1290.28,1338.33 1286.44,1339.13"/>
    </edge>
    <edge id=":103_6" function="internal">
        <lane id=":103_6_0" index="0" disallow="tram rail_urban rail rail_electric rail_fast ship" speed="3.65" length="1.44" shape="1295.08,1327.01 1294.29,1328.22"/>
    </edge>
    <edge id=":103_13" function="internal">
        <lane id=":103_13_0" index="0" disallow="tram rail_urban rail rail_electric rail_fast ship" speed="3.65" length="3.23" shape="1294.29,1328.22 1293.50,1328.63 1292.69,1328.24 1291.88,1327.06"/>
    </edge>
    <edge id=":103_7" function="internal">
        <lane id=":103_7_0" index="0" disallow="tram rail_urban rail rail_electric rail_fast ship" speed="6.51" length="9.03" shape="1286.35,1332.73 1288.80,1332.35 1290.54,1331.27 1291.56,1329.51 1291.88,1327.06"/>
    </edge>
    <edge id=":103_8" function="internal">
        <lane id=":103_8_0" index="0" disallow="tram rail_urban rail rail_electric rail_fast ship" speed="13.89" length="14.40" shape="1286.35,1332.73 1300.75,1332.53"/>
        <lane id=":103_8_1" index="1" disallow="tram rail_urban rail rail_electric rail_fast ship" speed="13.89" length="14.40" shape="1286.40,1335.93 1300.80,1335.73"/>
    </edge>
    <edge id=":103_10" function="internal">
        <lane id=":103_10_0" index="0" disallow="tram rail_urban rail rail_electric rail_fast ship" speed="3.65" length="1.44" shape="1286.40,1335.93 1287.61,1336.72"/>
    </edge>
    <edge id=":103_14" function="internal">
        <lane id=":103_14_0" index="0" disallow="tram rail_urban rail rail_electric rail_fast ship" speed="3.65" length="3.23" shape="1287.61,1336.72 1288.02,1337.51 1287.63,1338.32 1286.44,1339.13"/>
    </edge>
    <edge id=":104_0" function="internal">
        <lane id=":104_0_0" index="0" disallow="tram rail_urban rail rail_electric rail_fast ship" speed="9.32" length="19.63" shape="1932.73,1318.28 1932.28,1324.93 1930.69,1329.71 1927.98,1332.59 1924.14,1333.60"/>
        <lane id=":104_0_1" index="1" disallow="tram rail_urban rail rail_electric rail_fast ship" speed="8.67" length="16.85" shape="1932.73,1318.28 1932.26,1323.53 1930.66,1327.31 1927.94,1329.59 1924.10,1330.40"/>
    </edge>
    <edge id=":104_2" function="internal">
        <lane id=":104_2_0" index="0" disallow="tram rail_urban rail rail_electric rail_fast ship" speed="6.51" length="9.03" shape="1924.01,1324.00 1926.46,1323.61 1928.19,1322.54 1929.22,1320.78 1929.53,1318.32"/>
    </edge>
    <edge id=":201_0" function="internal">
        <lane id=":201_0_0" index="0" disallow="tram rail_urban rail rail_electric rail_fast ship" speed="11.11" length="20.80" shape="7.69,701.03 7.40,680.23"/>
    </edge>
    <edge id=":201_1" function="internal">
        <lane id=":201_1_0" index="0" disallow="tram rail_urban rail rail_electric rail_fast ship" speed="8.67" length="5.56" shape="7.69,701.03 8.17,695.77 8.28,695.51"/>
    </edge>
    <edge id=":201_2" function="internal">
        <lane id=":201_2_0" index="0" disallow="tram rail_urban rail rail_electric rail_fast ship" speed="3.65" length="1.44" shape="7.69,701.03 8.47,699.81"/>
    </edge>
    <edge id=":201_9" function="internal">
        <lane id=":201_9_0" index="0" disallow="tram rail_urban rail rail_electric rail_fast ship" speed="8.67" length="11.29" shape="8.28,695.51 9.77,692.00 12.49,689.71 16.33,688.91"/>
    </edge>
    <edge id=":201_10" function="internal">
        <lane id=":201_10_0" index="0" disallow="tram rail_urban rail rail_electric rail_fast ship" speed="3.65" length="3.23" shape="8.47,699.81 9.27,699.40 10.07,699.79 10.89,700.98"/>
    </edge>
    <edge id=":201_3" function="internal">
        <lane id=":201_3_0" index="0" disallow="tram rail_urban rail rail_electric rail_fast ship" speed="6.51" length="9.03" shape="16.41,695.30 13.97,695.69 12.23,696.76 11.21,698.53 10.89,700.98"/>
    </edge>
    <edge id=":201_4" function="internal">
        <lane id=":201_4_0" index="0" disallow="tram rail_urban rail rail_electric rail_fast ship" speed="8.67" length="16.85" shape="16.37,692.11 12.51,691.41 9.73,689.20 8.03,685.47 7.40,680.23"/>
    </edge>
    <edge id=":201_5" function="internal">
        <lane id=":201_5_0" index="0" disallow="tram rail_urban rail rail_electric rail_fast ship" speed="3.65" length="2.34" shape="16.37,692.11 15.16,691.32 14.75,690.53"/>
    </edge>
    <edge id=":201_11" function="internal">
        <lane id=":201_11_0" index="0" disallow="tram rail_urban rail rail_electric rail_fast ship" speed="3.65" length="2.34" shape="14.75,690.53 15.14,689.72 16.33,688.91"/>
    </edge>
    <edge id=":201_6" function="internal">
        <lane id=":201_6_0" index="0" disallow="tram rail_urban rail rail_electric rail_fast ship" speed="6.51" length="9.03" shape="10.60,680.18 10.99,682.63 12.06,684.36 13.83,685.39 16.28,685.71"/>
    </edge>
    <edge id=":201_7" function="internal">
        <lane id=":201_7_0" index="0" disallow="tram rail_urban rail rail_electric rail_fast ship" speed="11.11" length="20.80" shape="10.60,680.18 10.89,700.98"/>
    </edge>
    <edge id=":201_8" function="internal">
        <lane id=":201_8_0" index="0" disallow="tram rail_urban rail rail_electric rail_fast ship" speed="3.65" length="1.44" shape="10.60,680.18 9.82,681.39"/>
    </edge>
    <edge id=":201_12" function="internal">
        <lane id=":201_12_0" index="0" disallow="tram rail_urban rail rail_electric rail_fast ship" speed="3.65" length="3.23" shape="9.82,681.39 9.03,681.81 8.22,681.42 7.40,680.23"/>
    </edge>
    <edge id=":202_0" function="internal">
        <lane id=":202_0_0" index="0" disallow="tram rail_urban rail rail_electric rail_fast ship" speed="6.51" length="9.03" shape="642.17,692.30 641.79,689.85 640.72,688.12 638.95,687.09 636.50,686.78"/>
    </edge>
    <edge id=":202_1" function="internal">
        <lane id=":202_1_0" index="0" disallow="tram rail_urban rail rail_electric rail_fast ship" speed="13.89" length="20.80" shape="642.17,692.30 641.89,671.50"/>
        <lane id=":202_1_1" index="1" disallow="tram rail_urban rail rail_electric rail_fast ship" speed="13.89" length="20.80" shape="645.37,692.25 645.09,671.46"/>
    </edge>
    <edge id=":202_3" function="internal">
        <lane id=":202_3_0" index="0" disallow="tram rail_urban rail rail_electric rail_fast ship" speed="9.26" length="5.01" shape="645.37,692.25 646.01,687.28"/>
    </edge>
    <edge id=":202_4" function="internal">
        <lane id=":202_4_0" index="0" disallow="tram rail_urban rail rail_electric rail_fast ship" speed="3.65" length="1.44" shape="645.37,692.25 646.16,691.04"/>
    </edge>
    <edge id=":202_20" function="internal">
        <lane id=":202_20_0" index="0" disallow="tram rail_urban rail rail_electric rail_fast ship" speed="9.26" length="14.34" shape="646.01,687.28 646.05,686.99 648.25,683.21 651.97,680.91 657.21,680.09"/>
    </edge>
    <edge id=":202_21" function="internal">
        <lane id=":202_21_0" index="0" disallow="tram rail_urban rail rail_electric rail_fast ship" speed="3.65" length="3.23" shape="646.16,691.04 646.95,690.63 647.76,691.02 648.57,692.21"/>
    </edge>
    <edge id=":202_5" function="internal">
        <lane id=":202_5_0" index="0" disallow="tram rail_urban rail rail_electric rail_fast ship" speed="6.51" length="9.03" shape="657.30,686.49 654.85,686.87 653.12,687.95 652.09,689.71 651.77,692.17"/>
    </edge>
    <edge id=":202_6" function="internal">
        <lane id=":202_6_0" index="0" disallow="tram rail_urban rail rail_electric rail_fast ship" speed="13.89" length="20.80" shape="657.30,686.49 636.50,686.78"/>
        <lane id=":202_6_1" index="1" disallow="tram rail_urban rail rail_electric rail_fast ship" speed="13.89" length="20.80" shape="657.25,683.29 636.45,683.58"/>
    </edge>
    <edge id=":202_8" function="internal">
        <lane id=":202_8_0" index="0" disallow="tram rail_urban rail rail_electric rail_fast ship" speed="9.26" length="5.01" shape="657.25,683.29 652.28,682.65"/>
    </edge>
    <edge id=":202_9" function="internal">
        <lane id=":202_9_0" index="0" disallow="tram rail_urban rail rail_electric rail_fast ship" speed="3.65" length="1.44" shape="657.25,683.29 656.04,682.51"/>
    </edge>
    <edge id=":202_22" function="internal">
        <lane id=":202_22_0" index="0" disallow="tram rail_urban rail rail_electric rail_fast ship" speed="9.26" length="14.34" shape="652.28,682.65 651.99,682.61 648.21,680.41 645.91,676.69 645.09,671.46"/>
    </edge>
    <edge id=":202_23" function="internal">
        <lane id=":202_23_0" index="0" disallow="tram rail_urban rail rail_electric rail_fast ship" speed="3.65" length="3.23" shape="656.04,682.51 655.63,681.71 656.02,680.91 657.21,680.09"/>
    </edge>
    <edge id=":202_10" function="internal">
        <lane id=":202_10_0" index="0" disallow="tram rail_urban rail rail_electric rail_fast ship" speed="6.51" length="9.03" shape="651.49,671.37 651.87,673.81 652.94,675.55 654.71,676.57 657.16,676.89"/>
    </edge>
    <edge id=":202_11" function="internal">
        <lane id=":202_11_0" index="0" disallow="tram rail_urban rail rail_electric rail_fast ship" speed="13.89" length="20.80" shape="651.49,671.37 651.77,692.17"/>
        <lane id=":202_11_1" index="1" disallow="tram rail_urban rail rail_electric rail_fast ship" speed="13.89" length="20.80" shape="648.29,671.41 648.57,692.21"/>
    </edge>
    <edge id=":202_13" function="internal">
        <lane id=":202_13_0" index="0" disallow="tram rail_urban rail rail_electric rail_fast ship" speed="9.26" length="5.01" shape="648.29,671.41 647.65,676.38"/>
    </edge>
    <edge id=":202_14" function="internal">
        <lane id=":202_14_0" index="0" disallow="tram rail_urban rail rail_electric rail_fast ship" speed="3.65" length="1.44" shape="648.29,671.41 647.50,672.62"/>
    </edge>
    <edge id=":202_24" function="internal">
        <lane id=":202_24_0" index="0" disallow="tram rail_urban rail rail_electric rail_fast ship" speed="9.26" length="14.34" shape="647.65,676.38 647.61,676.67 645.41,680.45 641.69,682.75 636.45,683.58"/>
    </edge>
    <edge id=":202_25" function="internal">
        <lane id=":202_25_0" index="0" disallow="tram rail_urban rail rail_electric rail_fast ship" speed="3.65" length="3.23" shape="647.50,672.62 646.71,673.03 645.90,672.64 645.09,671.46"/>
    </edge>
    <edge id=":202_15" function="internal">
        <lane id=":202_15_0" index="0" disallow="tram rail_urban rail rail_electric rail_fast ship" speed="6.51" length="9.03" shape="636.37,677.18 638.81,676.79 640.55,675.72 641.57,673.95 641.89,671.50"/>
    </edge>
    <edge id=":202_16" function="internal">
        <lane id=":202_16_0" index="0" disallow="tram rail_urban rail rail_electric rail_fast ship" speed="13.89" length="20.80" shape="636.37,677.18 657.16,676.89"/>
        <lane id=":202_16_1" index="1" disallow="tram rail_urban rail rail_electric rail_fast ship" speed="13.89" length="20.80" shape="636.41,680.38 657.21,680.09"/>
    </edge>
    <edge id=":202_18" function="internal">
        <lane id=":202_18_0" index="0" disallow="tram rail_urban rail rail_electric rail_fast ship" speed="9.26" length="5.01" shape="636.41,680.38 641.38,681.02"/>
    </edge>
    <edge id=":202_19" function="internal">
        <lane id=":202_19_0" index="0" disallow="tram rail_urban rail rail_electric rail_fast ship" speed="3.65" length="1.44" shape="636.41,680.38 637.62,681.16"/>
    </edge>
    <edge id=":202_26" function="internal">
        <lane id=":202_26_0" index="0" disallow="tram rail_urban rail rail_electric rail_fast ship" speed="9.26" length="14.34" shape="641.38,681.02 641.67,681.05 645.45,683.25 647.75,686.97 648.57,692.21"/>
    </edge>
    <edge id=":202_27" function="internal">
        <lane id=":202_27_0" index="0" disallow="tram rail_urban rail rail_electric rail_fast ship" speed="3.65" length="3.23" shape="637.62,681.16 638.03,681.95 637.64,682.76 636.45,683.58"/>
    </edge>
    <edge id=":203_0" function="internal">
        <lane id=":203_0_0" index="0" disallow="tram rail_urban rail rail_electric rail_fast ship" speed="6.51" length="9.03" shape="1283.05,683.50 1282.67,681.06 1281.60,679.32 1279.83,678.30 1277.38,677.98"/>
    </edge>
    <edge id=":203_1" function="internal">
        <lane id=":203_1_0" index="0" disallow="tram rail_urban rail rail_electric rail_fast ship" speed="11.11" length="20.80" shape="1283.05,683.50 1282.77,662.70"/>
    </edge>
    <edge id=":203_2" function="internal">
        <lane id=":203_2_0" index="0" disallow="tram rail_urban rail rail_electric rail_fast ship" speed="8.67" length="5.56" shape="1283.05,683.50 1283.53,678.24 1283.64,677.99"/>
    </edge>
    <edge id=":203_3" function="internal">
        <lane id=":203_3_0" index="0" disallow="tram rail_urban rail rail_electric rail_fast ship" speed="3.65" length="1.44" shape="1283.05,683.50 1283.84,682.29"/>
    </edge>
    <edge id=":203_18" function="internal">
        <lane id=":203_18_0" index="0" disallow="tram rail_urban rail rail_electric rail_fast ship" speed="8.67" length="11.29" shape="1283.64,677.99 1285.13,674.47 1287.85,672.18 1291.69,671.38"/>
    </edge>
    <edge id=":203_19" function="internal">
        <lane id=":203_19_0" index="0" disallow="tram rail_urban rail rail_electric rail_fast ship" speed="3.65" length="3.23" shape="1283.84,682.29 1284.63,681.88 1285.44,682.27 1286.25,683.46"/>
    </edge>
    <edge id=":203_4" function="internal">
        <lane id=":203_4_0" index="0" disallow="tram rail_urban rail rail_electric rail_fast ship" speed="6.51" length="9.03" shape="1291.78,677.78 1289.33,678.17 1287.60,679.24 1286.57,681.00 1286.25,683.46"/>
    </edge>
    <edge id=":203_5" function="internal">
        <lane id=":203_5_0" index="0" disallow="tram rail_urban rail rail_electric rail_fast ship" speed="13.89" length="14.40" shape="1291.78,677.78 1277.38,677.98"/>
        <lane id=":203_5_1" index="1" disallow="tram rail_urban rail rail_electric rail_fast ship" speed="13.89" length="14.40" shape="1291.73,674.58 1277.33,674.78"/>
    </edge>
    <edge id=":203_7" function="internal">
        <lane id=":203_7_0" index="0" disallow="tram rail_urban rail rail_electric rail_fast ship" speed="8.67" length="3.71" shape="1291.73,674.58 1288.08,673.92"/>
    </edge>
    <edge id=":203_8" function="internal">
        <lane id=":203_8_0" index="0" disallow="tram rail_urban rail rail_electric rail_fast ship" speed="3.65" length="1.44" shape="1291.73,674.58 1290.52,673.80"/>
    </edge>
    <edge id=":203_20" function="internal">
        <lane id=":203_20_0" index="0" disallow="tram rail_urban rail rail_electric rail_fast ship" speed="8.67" length="13.14" shape="1288.08,673.92 1287.87,673.88 1285.09,671.67 1283.39,667.95 1282.77,662.70"/>
    </edge>
    <edge id=":203_21" function="internal">
        <lane id=":203_21_0" index="0" disallow="tram rail_urban rail rail_electric rail_fast ship" speed="3.65" length="3.23" shape="1290.52,673.80 1290.11,673.00 1290.50,672.20 1291.69,671.38"/>
    </edge>
    <edge id=":203_9" function="internal">
        <lane id=":203_9_0" index="0" disallow="tram rail_urban rail rail_electric rail_fast ship" speed="6.51" length="9.03" shape="1285.97,662.66 1286.35,665.10 1287.43,666.84 1289.19,667.87 1291.64,668.18"/>
    </edge>
    <edge id=":203_10" function="internal">
        <lane id=":203_10_0" index="0" disallow="tram rail_urban rail rail_electric rail_fast ship" speed="11.11" length="20.80" shape="1285.97,662.66 1286.25,683.46"/>
    </edge>
    <edge id=":203_11" function="internal">
        <lane id=":203_11_0" index="0" disallow="tram rail_urban rail rail_electric rail_fast ship" speed="8.67" length="5.56" shape="1285.97,662.66 1285.49,667.92 1285.38,668.17"/>
    </edge>
    <edge id=":203_12" function="internal">
        <lane id=":203_12_0" index="0" disallow="tram rail_urban rail rail_electric rail_fast ship" speed="3.65" length="1.44" shape="1285.97,662.66 1285.18,663.87"/>
    </edge>
    <edge id=":203_22" function="internal">
        <lane id=":203_22_0" index="0" disallow="tram rail_urban rail rail_electric rail_fast ship" speed="8.67" length="11.29" shape="1285.38,668.17 1283.89,671.69 1281.17,673.98 1277.33,674.78"/>
    </edge>
    <edge id=":203_23" function="internal">
        <lane id=":203_23_0" index="0" disallow="tram rail_urban rail rail_electric rail_fast ship" speed="3.65" length="3.23" shape="1285.18,663.87 1284.39,664.28 1283.59,663.89 1282.77,662.70"/>
    </edge>
    <edge id=":203_13" function="internal">
        <lane id=":203_13_0" index="0" disallow="tram rail_urban rail rail_electric rail_fast ship" speed="6.51" length="9.03" shape="1277.25,668.38 1279.69,668.00 1281.43,666.92 1282.45,665.16 1282.77,662.70"/>
    </edge>
    <edge id=":203_14" function="internal">
        <lane id=":203_14_0" index="0" disallow="tram rail_urban rail rail_electric rail_fast ship" speed="13.89" length="14.40" shape="1277.25,668.38 1291.64,668.18"/>
        <lane id=":203_14_1" index="1" disallow="tram rail_urban rail rail_electric rail_fast ship" speed="13.89" length="14.40" shape="1277.29,671.58 1291.69,671.38"/>
    </edge>
    <edge id=":203_16" function="internal">
        <lane id=":203_16_0" index="0" disallow="tram rail_urban rail rail_electric rail_fast ship" speed="8.67" length="3.71" shape="1277.29,671.58 1280.94,672.24"/>
    </edge>
    <edge id=":203_17" function="internal">
        <lane id=":203_17_0" index="0" disallow="tram rail_urban rail rail_electric rail_fast ship" speed="3.65" length="1.44" shape="1277.29,671.58 1278.50,672.36"/>
    </edge>
    <edge id=":203_24" function="internal">
        <lane id=":203_24_0" index="0" disallow="tram rail_urban rail rail_electric rail_fast ship" speed="8.67" length="13.14" shape="1280.94,672.24 1281.15,672.28 1283.93,674.49 1285.63,678.22 1286.25,683.46"/>
    </edge>
    <edge id=":203_25" function="internal">
        <lane id=":203_25_0" index="0" disallow="tram rail_urban rail rail_electric rail_fast ship" speed="3.65" length="3.23" shape="1278.50,672.36 1278.91,673.16 1278.52,673.96 1277.33,674.78"/>
    </edge>
    <edge id=":204_0" function="internal">
        <lane id=":204_0_0" index="0" disallow="tram rail_urban rail rail_electric rail_fast ship" speed="6.51" length="9.03" shape="1920.73,674.77 1920.35,672.33 1919.27,670.59 1917.51,669.56 1915.06,669.25"/>
    </edge>
    <edge id=":204_1" function="internal">
        <lane id=":204_1_0" index="0" disallow="tram rail_urban rail rail_electric rail_fast ship" speed="11.11" length="20.80" shape="1920.73,674.77 1920.45,653.97"/>
    </edge>
    <edge id=":204_2" function="internal">
        <lane id=":204_2_0" index="0" disallow="tram rail_urban rail rail_electric rail_fast ship" speed="3.65" length="1.44" shape="1920.73,674.77 1921.51,673.56"/>
    </edge>
    <edge id=":204_9" function="internal">
        <lane id=":204_9_0" index="0" disallow="tram rail_urban rail rail_electric rail_fast ship" speed="3.65" length="3.23" shape="1921.51,673.56 1922.31,673.15 1923.11,673.54 1923.93,674.73"/>
    </edge>
    <edge id=":204_3" function="internal">
        <lane id=":204_3_0" index="0" disallow="tram rail_urban rail rail_electric rail_fast ship" speed="11.11" length="20.80" shape="1923.65,653.93 1923.93,674.73"/>
    </edge>
    <edge id=":204_4" function="internal">
        <lane id=":204_4_0" index="0" disallow="tram rail_urban rail rail_electric rail_fast ship" speed="8.67" length="5.56" shape="1923.65,653.93 1923.17,659.19 1923.06,659.44"/>
    </edge>
    <edge id=":204_5" function="internal">
        <lane id=":204_5_0" index="0" disallow="tram rail_urban rail rail_electric rail_fast ship" speed="3.65" length="1.44" shape="1923.65,653.93 1922.86,655.14"/>
    </edge>
    <edge id=":204_10" function="internal">
        <lane id=":204_10_0" index="0" disallow="tram rail_urban rail rail_electric rail_fast ship" speed="8.67" length="11.29" shape="1923.06,659.44 1921.57,662.96 1918.85,665.24 1915.01,666.05"/>
    </edge>
    <edge id=":204_11" function="internal">
        <lane id=":204_11_0" index="0" disallow="tram rail_urban rail rail_electric rail_fast ship" speed="3.65" length="3.23" shape="1922.86,655.14 1922.07,655.55 1921.26,655.16 1920.45,653.97"/>
    </edge>
    <edge id=":204_6" function="internal">
        <lane id=":204_6_0" index="0" disallow="tram rail_urban rail rail_electric rail_fast ship" speed="6.51" length="9.03" shape="1914.92,659.65 1917.37,659.26 1919.10,658.19 1920.13,656.43 1920.45,653.97"/>
    </edge>
    <edge id=":204_7" function="internal">
        <lane id=":204_7_0" index="0" disallow="tram rail_urban rail rail_electric rail_fast ship" speed="8.67" length="16.85" shape="1914.97,662.85 1918.83,663.54 1921.61,665.76 1923.31,669.48 1923.93,674.73"/>
    </edge>
    <edge id=":204_8" function="internal">
        <lane id=":204_8_0" index="0" disallow="tram rail_urban rail rail_electric rail_fast ship" speed="3.65" length="2.34" shape="1914.97,662.85 1916.18,663.63 1916.59,664.43"/>
    </edge>
    <edge id=":204_12" function="internal">
        <lane id=":204_12_0" index="0" disallow="tram rail_urban rail rail_electric rail_fast ship" speed="3.65" length="2.34" shape="1916.59,664.43 1916.20,665.23 1915.01,666.05"/>
    </edge>
    <edge id=":301_0" function="internal">
        <lane id=":301_0_0" index="0" disallow="tram rail_urban rail rail_electric rail_fast ship" speed="6.08" length="7.74" shape="-1.56,29.47 -1.28,27.37 -0.41,25.85 1.08,24.93 3.18,24.60"/>
    </edge>
    <edge id=":301_1" function="internal">
        <lane id=":301_1_0" index="0" disallow="tram rail_urban rail rail_electric rail_fast ship" speed="3.90" length="2.58" shape="3.22,27.80 2.52,27.91 2.03,28.22 1.73,28.72 1.64,29.43"/>
    </edge>